#!/usr/bin/python
sys.path.insert(0, './..')
import oepdev

# test molecule
molecule menh2 {
0 1
N    0.711362   5.135877   0.013084
C   -0.584283   5.589502  -0.466126
H    1.454076   5.493521  -0.552131
H    0.775798   4.138552  -0.000893
H   -0.627138   6.672051  -0.414631
H   -0.817428   5.290142  -1.488845
H   -1.362517   5.203014   0.183012

units angstrom
symmetry c1
noreorient
nocom
}

set {
    # ==> OEPDEV Routine Specification <== #
    oepdev_target                 test
    oepdev_test_name              cphf
    oepdev_test_mode              monomer
    oepdev_localize               False
    oepdev_enable_trial           False
    # ==> CPHF <== #
    cphf_diis                     True
    cphf_diis_dim                 8
    cphf_maxiter                  200
    cphf_conver                   1e-8
    cphf_localizer                PIPEK_MEZEY
    # ==> General Psi4 Options <== #
    basis                         6-311++G**
    scf_type                      direct 
    guess                         core
    e_convergence                 1e-8
    d_convergence                 1e-9
    print                         1
    puream                        False
}


# run oepdev
energy('oepdev', molecule=menh2)
