#!/usr/bin/python
sys.path.insert(0, './..')
import oepdev

# test molecule
molecule h2o {
0 1
O   0.000000   0.113009   0.000000
H   0.752785  -0.452035   0.000000
H  -0.752785  -0.452035   0.000000

units angstrom
symmetry c1
noreorient
nocom
}
molecule h2 {
0 1
H   0.752785  -0.452035   0.000000
H  -0.752785  -0.452035   0.000000

units angstrom
symmetry c1
noreorient
nocom
}
molecule hcat {
1 1
H   0.752785  -0.452035   0.000000

units angstrom
symmetry c1
noreorient
nocom
}
molecule lih {
0 1
Li   0.752785  -0.452035   0.000000
H   -0.752785  -0.452035   0.000000

units angstrom
symmetry c1
noreorient
nocom
}
molecule menh2 {
0 1
N    0.711362   5.135877   0.013084
C   -0.584283   5.589502  -0.466126
H    1.454076   5.493521  -0.552131
H    0.775798   4.138552  -0.000893
H   -0.627138   6.672051  -0.414631
H   -0.817428   5.290142  -1.488845
H   -1.362517   5.203014   0.183012

units angstrom
symmetry c1
noreorient
nocom
}


set {
    # ==> OEPDEV Routine Specification <== #
    oepdev_target                 test
    oepdev_test_name              DMATPOL_X
    oepdev_localize               False
    oepdev_enable_trial           False
    # ==> CPHF <== #
    cphf_diis                     True
    cphf_diis_dim                 8
    cphf_maxiter                  200
    cphf_conver                   1e-8
    cphf_localize                 True
    cphf_localizer                PIPEK_MEZEY
    # ==> ESP <== #
    esp_pad_sphere                10.0
    esp_vdw_radius_c              3.0
    esp_vdw_radius_h              4.0
    esp_vdw_radius_o              5.6
    esp_vdw_radius_n              2.4
    # ==> DmatPol <== #
    dmatpol_nsamples              40
    dmatpol_field_scale           0.005
    dmatpol_ntest_charge          10
    dmatpol_test_charge           0.3
    dmatpol_training_mode         CHARGES
    dmatpol_field_rank            1
    dmatpol_gradient_rank         0
    dmatpol_scale_1               2.0
    dmatpol_test_field_x          0.002
    dmatpol_test_field_y          0.010
    dmatpol_test_field_z          0.010
    dmatpol_out_stats             energy.4.dat
    # ==> General Psi4 Options <== #
    basis                         sto-3g
    scf_type                      direct 
    guess                         core
    e_convergence                 1e-10
    d_convergence                 1e-11
    print                         1
    puream                        False
    save_jk                       False
}


# run oepdev
energy('oepdev', molecule=h2o)
