#!/usr/bin/python
sys.path.insert(0, './..')
import oepdev

molecule h2o {
0 1
O         -3.08471        1.12313        0.00396
H         -2.11791        0.90877        0.01763
H         -3.12325        2.07922       -0.24921

units angstrom
symmetry c1
noreorient
nocom
}

set {
    # ==> OEPDEV Routine Specification <== #
    oepdev_target                 test
    oepdev_test_name              eri_3_1
    oepdev_localize               False
    oepdev_enable_trial           False
    # ==> General Psi4 Options <== #
    scf_type                      direct 
    guess                         core
    print                         1
    puream                        False
    # ==> Basis Sets <== #
    basis                         6-311++G(3df)
}


# run oepdev
energy('oepdev', molecule=h2o)
