6
	Energy:      -6.5643625
O          0.96944       -4.30612       -2.18132
H          1.33485       -5.15965       -1.90564
H          0.84646       -3.85901       -1.31466
O          0.67961       -3.28639        0.35954
H          1.28440       -2.98969        1.06083
H         -0.15242       -2.83702        0.58835
